<?xml version="1.0" encoding="UTF-8"?>

<!-- generated on 2022-06-01 11:05:29 by Eclipse SUMO netedit Version 1.12.0
<configuration xmlns:xsi="http://www.w3.org/2001/XMLSchema-instance" xsi:noNamespaceSchemaLocation="http://sumo.dlr.de/xsd/netconvertConfiguration.xsd">

    <input>
        <sumo-net-file value="C:\Users\tchar\OneDrive%20-%20entpe.fr\Thèse\Simulations\SUMO\géométries%20autoroutières\Section\données%20réseau\Reseau%20section%20travaux%20debut%20brouillard.net.xml"/>
    </input>

    <output>
        <output-file value="C:\Users\tchar\OneDrive%20-%20entpe.fr\Thèse\Simulations\SUMO\géométries%20autoroutières\Section\données%20réseau\Reseau%20section%20travaux%20debut%20brouillard.net.xml"/>
    </output>

    <processing>
        <geometry.min-radius.fix.railways value="false"/>
        <geometry.max-grade.fix value="false"/>
        <offset.disable-normalization value="true"/>
        <lefthand value="false"/>
    </processing>

    <junctions>
        <no-turnarounds value="true"/>
        <junctions.corner-detail value="5"/>
        <junctions.limit-turn-speed value="5.5"/>
        <rectangular-lane-cut value="false"/>
    </junctions>

    <pedestrian>
        <walkingareas value="false"/>
    </pedestrian>

    <report>
        <aggregate-warnings value="5"/>
    </report>

</configuration>
-->

<net version="1.9" junctionCornerDetail="5" limitTurnSpeed="5.50" xmlns:xsi="http://www.w3.org/2001/XMLSchema-instance" xsi:noNamespaceSchemaLocation="http://sumo.dlr.de/xsd/net_file.xsd">

    <location netOffset="0.00,0.00" convBoundary="-37.60,56.53,1798.22,57.84" origBoundary="-10000000000.00,-10000000000.00,10000000000.00,10000000000.00" projParameter="!"/>

    <edge id=":J1_0" function="internal">
        <lane id=":J1_0_0" index="0" speed="13.89" length="0.10" shape="339.90,56.01 339.90,56.01"/>
    </edge>
    <edge id=":J2_0" function="internal">
        <lane id=":J2_0_0" index="0" speed="13.89" length="8.40" shape="1043.56,56.24 1046.02,55.74 1047.56,54.64 1049.10,53.54 1051.56,53.04"/>
        <lane id=":J2_0_1" index="1" speed="13.89" length="8.40" shape="1043.56,56.24 1051.56,56.24"/>
    </edge>
    <edge id=":J3_0" function="internal">
        <lane id=":J3_0_0" index="0" speed="13.89" length="0.30" shape="1345.67,53.04 1345.96,53.04"/>
        <lane id=":J3_0_1" index="1" speed="13.89" length="0.30" shape="1345.67,56.24 1345.97,56.24"/>
    </edge>

    <edge id="E0" from="J0" to="J1" priority="-1" length="1000.00">
        <lane id="E0_0" index="0" speed="13.89" length="1000.00" shape="-37.60,56.01 339.90,56.01"/>
    </edge>
    <edge id="E1" from="J1" to="J2" priority="-1" length="300.00">
        <lane id="E1_0" index="0" speed="13.89" length="300.00" shape="339.90,56.01 1043.56,56.24"/>
    </edge>
    <edge id="E2" from="J2" to="J3" priority="-1" length="300.00">
        <lane id="E2_0" index="0" speed="13.89" length="300.00" shape="1051.56,53.04 1345.67,53.04"/>
        <lane id="E2_1" index="1" speed="13.89" length="300.00" shape="1051.56,56.24 1345.67,56.24"/>
    </edge>
    <edge id="E3" from="J3" to="J4" priority="-1" length="300.00">
        <lane id="E3_0" index="0" speed="13.89" length="300.00" shape="1345.96,53.04 1798.21,51.73"/>
        <lane id="E3_1" index="1" speed="13.89" length="300.00" shape="1345.97,56.24 1798.22,54.93"/>
    </edge>

    <junction id="J0" type="dead_end" x="-37.60" y="57.61" incLanes="" intLanes="" shape="-37.60,57.61 -37.60,54.41"/>
    <junction id="J1" type="priority" x="339.90" y="57.61" incLanes="E0_0" intLanes=":J1_0_0" shape="339.90,57.61 339.90,54.41 339.90,57.61">
        <request index="0" response="0" foes="0" cont="0"/>
    </junction>
    <junction id="J2" type="priority" x="1047.56" y="57.84" incLanes="E1_0" intLanes=":J2_0_0 :J2_0_1" shape="1051.56,57.84 1051.56,51.44 1048.53,52.27 1046.59,53.81 1045.35,54.40 1043.56,54.64 1043.56,57.84">
        <request index="0" response="00" foes="00" cont="0"/>
        <request index="1" response="00" foes="00" cont="0"/>
    </junction>
    <junction id="J3" type="priority" x="1345.82" y="57.84" incLanes="E2_0 E2_1" intLanes=":J3_0_0 :J3_0_1" shape="1345.97,57.84 1345.96,51.44 1345.67,51.44 1345.67,57.84">
        <request index="0" response="00" foes="00" cont="0"/>
        <request index="1" response="00" foes="00" cont="0"/>
    </junction>
    <junction id="J4" type="dead_end" x="1798.22" y="56.53" incLanes="E3_0 E3_1" intLanes="" shape="1798.20,50.13 1798.22,56.53"/>

    <connection from="E0" to="E1" fromLane="0" toLane="0" via=":J1_0_0" dir="s" state="M"/>
    <connection from="E1" to="E2" fromLane="0" toLane="0" via=":J2_0_0" dir="s" state="M"/>
    <connection from="E1" to="E2" fromLane="0" toLane="1" via=":J2_0_1" dir="s" state="M"/>
    <connection from="E2" to="E3" fromLane="0" toLane="0" via=":J3_0_0" dir="s" state="M"/>
    <connection from="E2" to="E3" fromLane="1" toLane="1" via=":J3_0_1" dir="s" state="M"/>

    <connection from=":J1_0" to="E1" fromLane="0" toLane="0" dir="s" state="M"/>
    <connection from=":J2_0" to="E2" fromLane="0" toLane="0" dir="s" state="M"/>
    <connection from=":J2_0" to="E2" fromLane="1" toLane="1" dir="s" state="M"/>
    <connection from=":J3_0" to="E3" fromLane="0" toLane="0" dir="s" state="M"/>
    <connection from=":J3_0" to="E3" fromLane="1" toLane="1" dir="s" state="M"/>

</net>
