<?xml version="1.0" encoding="UTF-8"?>

<!-- generated on 2022-06-01 11:04:56 by Eclipse SUMO netedit Version 1.12.0
<configuration xmlns:xsi="http://www.w3.org/2001/XMLSchema-instance" xsi:noNamespaceSchemaLocation="http://sumo.dlr.de/xsd/netconvertConfiguration.xsd">

    <input>
        <sumo-net-file value="C:\Users\tchar\OneDrive%20-%20entpe.fr\Thèse\Simulations\SUMO\géométries%20autoroutières\Section\données%20réseau\Reseau%20section%203%20voies%20travaux%20fin.net.xml"/>
    </input>

    <output>
        <output-file value="C:\Users\tchar\OneDrive%20-%20entpe.fr\Thèse\Simulations\SUMO\géométries%20autoroutières\Section\données%20réseau\Reseau%20section%203%20voies%20travaux%20fin.net.xml"/>
    </output>

    <processing>
        <geometry.min-radius.fix.railways value="false"/>
        <geometry.max-grade.fix value="false"/>
        <offset.disable-normalization value="true"/>
        <lefthand value="false"/>
    </processing>

    <junctions>
        <no-turnarounds value="true"/>
        <junctions.corner-detail value="5"/>
        <junctions.limit-turn-speed value="5.5"/>
        <rectangular-lane-cut value="false"/>
    </junctions>

    <pedestrian>
        <walkingareas value="false"/>
    </pedestrian>

    <report>
        <aggregate-warnings value="5"/>
    </report>

</configuration>
-->

<net version="1.9" junctionCornerDetail="5" limitTurnSpeed="5.50" xmlns:xsi="http://www.w3.org/2001/XMLSchema-instance" xsi:noNamespaceSchemaLocation="http://sumo.dlr.de/xsd/net_file.xsd">

    <location netOffset="0.00,0.00" convBoundary="-37.60,56.53,1798.22,57.84" origBoundary="-10000000000.00,-10000000000.00,10000000000.00,10000000000.00" projParameter="!"/>

    <edge id=":J1_0" function="internal">
        <lane id=":J1_0_0" index="0" speed="36.11" length="0.30" shape="339.75,49.61 340.05,49.61"/>
        <lane id=":J1_0_1" index="1" speed="36.11" length="0.30" shape="339.75,52.81 340.05,52.81"/>
        <lane id=":J1_0_2" index="2" speed="36.11" length="0.30" shape="339.75,56.01 340.05,56.01"/>
    </edge>
    <edge id=":J2_0" function="internal">
        <lane id=":J2_0_0" index="0" speed="27.77" length="9.07" shape="1042.26,53.04 1051.87,53.04"/>
        <lane id=":J2_0_1" index="1" speed="27.77" length="9.07" shape="1043.13,56.24 1051.66,56.24"/>
    </edge>
    <edge id=":J3_0" function="internal">
        <lane id=":J3_0_0" index="0" speed="19.44" length="0.30" shape="1345.67,53.04 1345.96,53.04"/>
        <lane id=":J3_0_1" index="1" speed="19.44" length="0.30" shape="1345.67,56.24 1345.97,56.24"/>
    </edge>

    <edge id="E0" from="J0" to="J1" priority="-1" length="1000.00">
        <lane id="E0_0" index="0" speed="36.11" length="1000.00" shape="-37.60,49.61 339.75,49.61"/>
        <lane id="E0_1" index="1" speed="36.11" length="1000.00" shape="-37.60,52.81 339.75,52.81"/>
        <lane id="E0_2" index="2" speed="36.11" length="1000.00" shape="-37.60,56.01 339.75,56.01"/>
    </edge>
    <edge id="E1" from="J1" to="J2" priority="-1" length="300.00">
        <lane id="E1_0" index="0" speed="36.11" length="300.00" shape="340.05,49.61 1041.40,49.84"/>
        <lane id="E1_1" index="1" speed="36.11" length="300.00" shape="340.05,52.81 1042.26,53.04"/>
        <lane id="E1_2" index="2" speed="36.11" length="300.00" shape="340.05,56.01 1043.13,56.24"/>
    </edge>
    <edge id="E2" from="J2" to="J3" priority="-1" length="300.00">
        <lane id="E2_0" index="0" speed="19.44" length="300.00" shape="1051.87,53.04 1345.67,53.04"/>
        <lane id="E2_1" index="1" speed="19.44" length="300.00" shape="1051.66,56.24 1345.67,56.24"/>
    </edge>
    <edge id="E3" from="J3" to="J4" priority="-1" length="300.00">
        <lane id="E3_0" index="0" speed="19.44" length="300.00" shape="1345.96,53.04 1798.21,51.73"/>
        <lane id="E3_1" index="1" speed="19.44" length="300.00" shape="1345.97,56.24 1798.22,54.93"/>
    </edge>

    <junction id="J0" type="dead_end" x="-37.60" y="57.61" incLanes="" intLanes="" shape="-37.60,57.61 -37.60,48.01"/>
    <junction id="J1" type="priority" x="339.90" y="57.61" incLanes="E0_0 E0_1 E0_2" intLanes=":J1_0_0 :J1_0_1 :J1_0_2" shape="340.05,57.61 340.05,48.01 339.75,48.01 339.75,57.61">
        <request index="0" response="000" foes="000" cont="0"/>
        <request index="1" response="000" foes="000" cont="0"/>
        <request index="2" response="000" foes="000" cont="0"/>
    </junction>
    <junction id="J2" type="priority" x="1047.56" y="57.84" incLanes="E1_0 E1_1 E1_2" intLanes=":J2_0_0 :J2_0_1" shape="1051.56,57.84 1052.01,50.90 1047.62,48.24 1040.93,48.11 1043.56,57.84" customShape="1">
        <request index="0" response="00" foes="00" cont="0"/>
        <request index="1" response="00" foes="00" cont="0"/>
    </junction>
    <junction id="J3" type="priority" x="1345.82" y="57.84" incLanes="E2_0 E2_1" intLanes=":J3_0_0 :J3_0_1" shape="1345.97,57.84 1345.96,51.44 1345.67,51.44 1345.67,57.84">
        <request index="0" response="00" foes="00" cont="0"/>
        <request index="1" response="00" foes="00" cont="0"/>
    </junction>
    <junction id="J4" type="dead_end" x="1798.22" y="56.53" incLanes="E3_0 E3_1" intLanes="" shape="1798.20,50.13 1798.22,56.53"/>

    <connection from="E0" to="E1" fromLane="0" toLane="0" via=":J1_0_0" dir="s" state="M"/>
    <connection from="E0" to="E1" fromLane="1" toLane="1" via=":J1_0_1" dir="s" state="M"/>
    <connection from="E0" to="E1" fromLane="2" toLane="2" via=":J1_0_2" dir="s" state="M"/>
    <connection from="E1" to="E2" fromLane="1" toLane="0" via=":J2_0_0" dir="s" state="M"/>
    <connection from="E1" to="E2" fromLane="2" toLane="1" via=":J2_0_1" dir="s" state="M"/>
    <connection from="E2" to="E3" fromLane="0" toLane="0" via=":J3_0_0" dir="s" state="M"/>
    <connection from="E2" to="E3" fromLane="1" toLane="1" via=":J3_0_1" dir="s" state="M"/>

    <connection from=":J1_0" to="E1" fromLane="0" toLane="0" dir="s" state="M"/>
    <connection from=":J1_0" to="E1" fromLane="1" toLane="1" dir="s" state="M"/>
    <connection from=":J1_0" to="E1" fromLane="2" toLane="2" dir="s" state="M"/>
    <connection from=":J2_0" to="E2" fromLane="0" toLane="0" dir="s" state="M"/>
    <connection from=":J2_0" to="E2" fromLane="1" toLane="1" dir="s" state="M"/>
    <connection from=":J3_0" to="E3" fromLane="0" toLane="0" dir="s" state="M"/>
    <connection from=":J3_0" to="E3" fromLane="1" toLane="1" dir="s" state="M"/>

</net>
