<?xml version="1.0" encoding="UTF-8"?>

<!-- generated on 2022-05-19 09:19:08 by Eclipse SUMO netedit Version 1.12.0-->

<routes xmlns:xsi="http://www.w3.org/2001/XMLSchema-instance" xsi:noNamespaceSchemaLocation="http://sumo.dlr.de/xsd/routes_file.xsd">
    <vType id="ACC" color="0,0,0,0" carFollowModel="ACC"/>
    <vType id="HDV" color="100,0,0,0" carFollowModel="EIDM"/>
    <route id="r_0" edges="E0 E1 E2"/>
    <flow id="f_0" type="ACC" route="r_0" begin="0.00" end="3600.00" vehsPerHour="300.00" departSpeed="speedLimit"/>
    <flow id="f_1" type="HDV" route="r_0" begin="0.00" end="3600.00" vehsPerHour="2700.00" departSpeed="speedLimit"/>
</routes>
